1AZ8
 OpenBabel04202310353D

 50 51  0  0  1  0  0  0  0  0999 V2000
   28.7160   15.6230   17.6590 C   0  0  0  0  0  0  0  0  0  0  0  0
   38.1610   10.7920   16.9820 N   0  0  0  0  0  0  0  0  0  0  0  0
   28.5060   14.9230   18.8410 C   0  0  0  0  0  0  0  0  0  0  0  0
   38.1210    9.8960   19.0690 N   0  0  0  0  0  0  0  0  0  0  0  0
   28.7820   13.5560   18.8730 C   0  0  0  0  0  0  0  0  0  0  0  0
   30.0110   15.1830   14.1970 N   0  0  0  0  0  0  0  0  0  0  0  0
   26.6350   10.9600   17.3600 O   0  0  0  0  0  0  0  0  0  0  0  0
   29.2670   12.9080   17.7210 C   0  0  0  0  0  0  0  0  0  0  0  0
   29.1310   16.9790   15.2230 N   0  0  0  0  0  0  0  0  0  0  0  0
   26.4550   10.7490   19.6240 O   0  0  0  0  0  0  0  0  0  0  0  0
   29.5080   13.6250   16.5660 C   0  0  0  0  0  0  0  0  0  0  0  0
   29.2410   14.9760   16.5360 C   0  0  0  0  0  0  0  0  0  0  0  0
   33.8520   10.4790   16.7160 C   0  0  0  0  0  0  0  0  0  0  0  0
   25.0400   10.8690   19.7260 C   0  0  0  0  0  0  0  0  0  0  0  0
   31.0690   11.3560   17.9310 C   0  0  0  0  0  0  0  0  0  0  0  0
   29.5850   11.4860   17.6480 C   0  0  1  0  0  0  0  0  0  0  0  0
   31.6200    9.9640   17.7050 C   0  0  0  0  0  0  0  0  0  0  0  0
   33.1260   10.0330   17.8150 C   0  0  0  0  0  0  0  0  0  0  0  0
   35.2400   10.6050   16.8120 C   0  0  0  0  0  0  0  0  0  0  0  0
   28.7020   10.5770   18.5370 C   0  0  0  0  0  0  0  0  0  0  0  0
   35.9330   10.2280   17.9800 C   0  0  0  0  0  0  0  0  0  0  0  0
   37.4550   10.3150   18.0100 C   0  0  0  0  0  0  0  0  0  0  0  0
   35.1940    9.7490   19.0750 C   0  0  0  0  0  0  0  0  0  0  0  0
   33.8000    9.6770   18.9960 C   0  0  0  0  0  0  0  0  0  0  0  0
   29.4890   15.7280   15.2710 C   0  0  0  0  0  0  0  0  0  0  0  0
   27.1800   10.7960   18.4520 C   0  0  0  0  0  0  0  0  0  0  0  0
   28.4829   16.6271   17.6097 H   0  0  0  0  0  0  0  0  0  0  0  0
   37.6988   11.1138   16.1745 H   0  0  0  0  0  0  0  0  0  0  0  0
   39.1438   10.8219   17.0315 H   0  0  0  0  0  0  0  0  0  0  0  0
   28.1518   15.4065   19.6811 H   0  0  0  0  0  0  0  0  0  0  0  0
   37.6346    9.5378   19.8464 H   0  0  0  0  0  0  0  0  0  0  0  0
   28.6306   13.0194   19.7415 H   0  0  0  0  0  0  0  0  0  0  0  0
   30.2891   14.2387   14.2097 H   0  0  0  0  0  0  0  0  0  0  0  0
   30.1244   15.7186   13.3787 H   0  0  0  0  0  0  0  0  0  0  0  0
   28.7372   17.4091   16.0162 H   0  0  0  0  0  0  0  0  0  0  0  0
   29.8858   13.1517   15.7304 H   0  0  0  0  0  0  0  0  0  0  0  0
   33.3687   10.7153   15.8354 H   0  0  0  0  0  0  0  0  0  0  0  0
   24.7490   10.7962   20.7531 H   0  0  0  0  0  0  0  0  0  0  0  0
   24.5743   10.0845   19.1669 H   0  0  0  0  0  0  0  0  0  0  0  0
   24.7333   11.8165   19.3347 H   0  0  0  0  0  0  0  0  0  0  0  0
   31.5941   12.0337   17.2907 H   0  0  0  0  0  0  0  0  0  0  0  0
   31.2067   11.5785   18.9685 H   0  0  0  0  0  0  0  0  0  0  0  0
   29.3552   11.1216   16.6686 H   0  0  0  0  0  0  0  0  0  0  0  0
   31.3427    9.6176   16.7313 H   0  0  0  0  0  0  0  0  0  0  0  0
   31.2253    9.2858   18.4325 H   0  0  0  0  0  0  0  0  0  0  0  0
   35.7693   10.9822   16.0104 H   0  0  0  0  0  0  0  0  0  0  0  0
   28.9960   10.7335   19.5539 H   0  0  0  0  0  0  0  0  0  0  0  0
   28.8643    9.5839   18.1731 H   0  0  0  0  0  0  0  0  0  0  0  0
   35.6792    9.4510   19.9357 H   0  0  0  0  0  0  0  0  0  0  0  0
   33.2590    9.3585   19.8151 H   0  0  0  0  0  0  0  0  0  0  0  0
  1  3  2  0  0  0  0
  1 12  1  0  0  0  0
  1 27  1  0  0  0  0
  2 22  1  0  0  0  0
  2 28  1  0  0  0  0
  2 29  1  0  0  0  0
  3  5  1  0  0  0  0
  3 30  1  0  0  0  0
  4 22  2  0  0  0  0
  4 31  1  0  0  0  0
  5  8  2  0  0  0  0
  5 32  1  0  0  0  0
  6 25  1  0  0  0  0
  6 33  1  0  0  0  0
  6 34  1  0  0  0  0
  7 26  2  0  0  0  0
  8 11  1  0  0  0  0
  8 16  1  0  0  0  0
  9 25  2  0  0  0  0
  9 35  1  0  0  0  0
 10 14  1  0  0  0  0
 10 26  1  0  0  0  0
 11 12  2  0  0  0  0
 11 36  1  0  0  0  0
 12 25  1  0  0  0  0
 13 19  2  0  0  0  0
 13 18  1  0  0  0  0
 13 37  1  0  0  0  0
 14 38  1  0  0  0  0
 14 39  1  0  0  0  0
 14 40  1  0  0  0  0
 15 17  1  0  0  0  0
 15 16  1  0  0  0  0
 15 41  1  0  0  0  0
 15 42  1  0  0  0  0
 16 20  1  0  0  0  0
 16 43  1  6  0  0  0
 17 18  1  0  0  0  0
 17 44  1  0  0  0  0
 17 45  1  0  0  0  0
 18 24  2  0  0  0  0
 19 21  1  0  0  0  0
 19 46  1  0  0  0  0
 20 26  1  0  0  0  0
 20 47  1  0  0  0  0
 20 48  1  0  0  0  0
 21 22  1  0  0  0  0
 21 23  2  0  0  0  0
 23 24  1  0  0  0  0
 23 49  1  0  0  0  0
 24 50  1  0  0  0  0
M  END
$$$$
